/*--------------------------------*- C++ -*----------------------------------*\
  =========                 |
  \\      /  F ield         | OpenFOAM: The Open Source CFD Toolbox
   \\    /   O peration     | Website:  https://openfoam.org
    \\  /    A nd           | Version:  6
     \\/     M anipulation  |
\*---------------------------------------------------------------------------*/
FoamFile
{
    version     2.0;
    format      ascii;
    class       featureEdgeMesh;
    location    "constant/triSurface";
    object      AMI.eMesh;
}
// * * * * * * * * * * * * * * * * * * * * * * * * * * * * * * * * * * * * * //


// points:

124
(
(0.0242804 -0.0843035 -0.238769)
(1.35973e-16 -0.0843035 -0.24)
(1.35973e-16 0.0473446 -0.24)
(0.0242804 0.0473446 -0.238769)
(-0.0242804 -0.0843035 -0.238769)
(-0.0242804 0.0473446 -0.238769)
(-0.0483116 -0.0843035 -0.235087)
(0.0483116 -0.0843035 -0.235087)
(0.0483116 0.0473446 -0.235087)
(-0.0483116 0.0473446 -0.235087)
(-0.0718471 -0.0843035 -0.228993)
(0.0718471 -0.0843035 -0.228993)
(0.0718471 0.0473446 -0.228993)
(-0.0718471 0.0473446 -0.228993)
(-0.0946454 -0.0843035 -0.22055)
(0.0946454 -0.0843035 -0.22055)
(0.0946454 0.0473446 -0.22055)
(-0.0946454 0.0473446 -0.22055)
(-0.116472 -0.0843035 -0.209843)
(0.116472 -0.0843035 -0.209843)
(0.116472 0.0473446 -0.209843)
(-0.116472 0.0473446 -0.209843)
(-0.137104 -0.0843035 -0.196983)
(0.137104 -0.0843035 -0.196983)
(0.137104 0.0473446 -0.196983)
(-0.137104 0.0473446 -0.196983)
(-0.156329 -0.0843035 -0.182102)
(0.156329 -0.0843035 -0.182102)
(0.156329 0.0473446 -0.182102)
(-0.156329 0.0473446 -0.182102)
(-0.17395 -0.0843035 -0.165352)
(0.17395 -0.0843035 -0.165352)
(0.17395 0.0473446 -0.165352)
(-0.17395 0.0473446 -0.165352)
(-0.189786 -0.0843035 -0.146905)
(0.189786 -0.0843035 -0.146905)
(0.189786 0.0473446 -0.146905)
(-0.189786 0.0473446 -0.146905)
(-0.203675 -0.0843035 -0.126951)
(0.203675 -0.0843035 -0.126951)
(0.203675 0.0473446 -0.126951)
(-0.203675 0.0473446 -0.126951)
(-0.215473 -0.0843035 -0.105695)
(0.215473 -0.0843035 -0.105695)
(0.215473 0.0473446 -0.105695)
(-0.215473 0.0473446 -0.105695)
(-0.22506 -0.0843035 -0.0833533)
(0.22506 -0.0843035 -0.0833533)
(0.22506 0.0473446 -0.0833533)
(-0.22506 0.0473446 -0.0833533)
(-0.232339 -0.0843035 -0.0601566)
(0.232339 -0.0843035 -0.0601566)
(0.232339 0.0473446 -0.0601566)
(-0.232339 0.0473446 -0.0601566)
(-0.237232 -0.0843035 -0.0363427)
(0.237232 -0.0843035 -0.0363427)
(0.237232 0.0473446 -0.0363427)
(-0.237232 0.0473446 -0.0363427)
(-0.239692 -0.0843035 -0.0121558)
(0.239692 -0.0843035 -0.0121558)
(0.239692 0.0473446 -0.0121558)
(-0.239692 0.0473446 -0.0121558)
(-0.239692 -0.0843035 0.0121558)
(0.239692 -0.0843035 0.0121558)
(0.239692 0.0473446 0.0121558)
(-0.239692 0.0473446 0.0121558)
(-0.237232 -0.0843035 0.0363427)
(0.237232 -0.0843035 0.0363427)
(0.237232 0.0473446 0.0363427)
(-0.237232 0.0473446 0.0363427)
(-0.232339 -0.0843035 0.0601566)
(0.232339 -0.0843035 0.0601566)
(0.232339 0.0473446 0.0601566)
(-0.232339 0.0473446 0.0601566)
(-0.22506 -0.0843035 0.0833533)
(0.22506 -0.0843035 0.0833533)
(0.22506 0.0473446 0.0833533)
(-0.22506 0.0473446 0.0833533)
(-0.215473 -0.0843035 0.105695)
(0.215473 -0.0843035 0.105695)
(0.215473 0.0473446 0.105695)
(-0.215473 0.0473446 0.105695)
(-0.203675 -0.0843035 0.126951)
(0.203675 -0.0843035 0.126951)
(0.203675 0.0473446 0.126951)
(-0.203675 0.0473446 0.126951)
(-0.189786 -0.0843035 0.146905)
(0.189786 -0.0843035 0.146905)
(0.189786 0.0473446 0.146905)
(-0.189786 0.0473446 0.146905)
(-0.17395 -0.0843035 0.165352)
(0.17395 -0.0843035 0.165352)
(0.17395 0.0473446 0.165352)
(-0.17395 0.0473446 0.165352)
(-0.156329 -0.0843035 0.182102)
(0.156329 -0.0843035 0.182102)
(0.156329 0.0473446 0.182102)
(-0.156329 0.0473446 0.182102)
(-0.137104 -0.0843035 0.196983)
(0.137104 -0.0843035 0.196983)
(0.137104 0.0473446 0.196983)
(-0.137104 0.0473446 0.196983)
(-0.116472 -0.0843035 0.209843)
(0.116472 -0.0843035 0.209843)
(0.116472 0.0473446 0.209843)
(-0.116472 0.0473446 0.209843)
(-0.0946454 -0.0843035 0.22055)
(0.0946454 -0.0843035 0.22055)
(0.0946454 0.0473446 0.22055)
(-0.0946454 0.0473446 0.22055)
(-0.0718471 -0.0843035 0.228993)
(0.0718471 -0.0843035 0.228993)
(0.0718471 0.0473446 0.228993)
(-0.0718471 0.0473446 0.228993)
(-0.0483116 -0.0843035 0.235087)
(0.0483116 -0.0843035 0.235087)
(0.0483116 0.0473446 0.235087)
(-0.0483116 0.0473446 0.235087)
(-0.0242804 -0.0843035 0.238769)
(0.0242804 -0.0843035 0.238769)
(0.0242804 0.0473446 0.238769)
(-0.0242804 0.0473446 0.238769)
(0 -0.0843035 0.24)
(0 0.0473446 0.24)
)


// edges:

124
(
(0 1)
(2 3)
(1 4)
(5 2)
(4 6)
(7 0)
(3 8)
(9 5)
(6 10)
(11 7)
(8 12)
(13 9)
(10 14)
(15 11)
(12 16)
(17 13)
(14 18)
(19 15)
(16 20)
(21 17)
(18 22)
(23 19)
(20 24)
(25 21)
(22 26)
(27 23)
(24 28)
(29 25)
(26 30)
(31 27)
(28 32)
(33 29)
(30 34)
(35 31)
(32 36)
(37 33)
(34 38)
(39 35)
(36 40)
(41 37)
(38 42)
(43 39)
(40 44)
(45 41)
(42 46)
(47 43)
(44 48)
(49 45)
(46 50)
(51 47)
(48 52)
(53 49)
(50 54)
(55 51)
(52 56)
(57 53)
(54 58)
(59 55)
(56 60)
(61 57)
(58 62)
(63 59)
(60 64)
(65 61)
(62 66)
(67 63)
(64 68)
(69 65)
(66 70)
(71 67)
(68 72)
(73 69)
(70 74)
(75 71)
(72 76)
(77 73)
(74 78)
(79 75)
(76 80)
(81 77)
(78 82)
(83 79)
(80 84)
(85 81)
(82 86)
(87 83)
(84 88)
(89 85)
(86 90)
(91 87)
(88 92)
(93 89)
(90 94)
(95 91)
(92 96)
(97 93)
(94 98)
(99 95)
(96 100)
(101 97)
(98 102)
(103 99)
(100 104)
(105 101)
(102 106)
(107 103)
(104 108)
(109 105)
(106 110)
(111 107)
(108 112)
(113 109)
(110 114)
(115 111)
(112 116)
(117 113)
(114 118)
(119 115)
(116 120)
(121 117)
(118 122)
(120 123)
(122 119)
(123 121)
)

// * * * * * * * * * * * * * * * * * * * * * * * * * * * * * * * * * * * * * //


// ************************************************************************* //
